<mxfile host="app.diagrams.net" modified="2022-04-17T22:39:30.191Z" agent="5.0 (Windows NT 10.0; Win64; x64) AppleWebKit/537.36 (KHTML, like Gecko) Chrome/100.0.4896.127 Safari/537.36" etag="L6y0yZeBpt2DgbkRrhI1" version="17.4.5" type="device"><diagram id="R2lEEEUBdFMjLlhIrx00" name="Page-1">7V3bkps6Fv0aP7qLi7HxY/o2OZPuc3r6JJmceUnJRrap0OCS6Yvz9SMwAoxkWzJXC6VSiREgQHtpbbG12BqYNy8f/0JgvXoMHOgNDM35GJi3A8MwbFvH/0Ul26REn0x2JUvkOrsyPSv42/0Nk0ItKX11HbjZOzAMAi901/uF88D34TzcKwMIBe/7hy0Cb/+qa7CEVMHfc+DRpf91nXC1K7UtLSv/DN3lilxZ15I9L4AcnBRsVsAJ3veK4Ed4H/hhcotPEL0AH/oh3vMI0C+IBtbdKgyjJ/00MO7x30V09NUyCJYeBGt3czUPXnDxfIMPuV+AF9eL2jlX0XVSEb6ceTcwb1AQhLtfLx830IuMRcywu6f7A3vTdkBRvRwn3Azftg+/tND//G5+Dx8fl0+T2TCp5Q14r0n7Jm0TbkmDQwe3f7IZoHAVLAMfeHdZ6TX0nU+RZfEBd8+/IQq+Bo/Axw9+vQkBCrN9gZ8cfu/iWzNvdXJIsq1Fez/c8Ee070rT9GT7n2jf1dgk27cfuYNvt7kN3NLuCwxxA+/K6EYimAVoCcMjLTNOEOEU4LgJXtE8Kbr/9/btyfvzl/H98dvyf0v/YTNcDS07NS7uhTDAt4O2+MT3DK0pJld5pJJCBD0Qum/7lwUJJpdphek1ngI3hmjSx4f6KKko6eIja7+K3RMkZ+UBU6xosl+PRW6QVLRrQ6oi/CP34FlRjEcBbBoUNv9CDkQbCqG4I6+jnyGYxXiMIZUwlxmhAHNRCFw/RoUeb3seWG/c+PBdycr1nAewDV5DUhHZul64H9B53hFXdCxG8wOubJNALKIA0j+i3cBzlz7+PceQi654jeAG38sD2ITJEQuM9pvAC1B8++ZisTDm8/i+UfAL5vY449nYGh+D8RtEIfzIFdG4S/aaBVQM9XFSkAOmYTGAmRayMLhndFELm6fZh9gWP3voAu8ZuxTgL2Mz71sxMoWDgvVX0rGjgnWETYju3uCO1LVC6/s7RooPix/OusZ/8ePeaFfWwMI3cIO39Wwb/40OR+FN4GNzATe2B8S2fYeRfa/DYJ1cx4MLchsoaczo9ywIQ+wjdkig7Xq0J5w2dmJck9O0Zl2WHVGWffoiYtsAP+vCi93GynUc6O96cTSiAJm9GaZktn/a5kVjFPsupz1MbnvkDGAKtn9SWdYqwrUBD2PfByG8Dl59Z1MHR1uUnfHhN8bgk7ZzJX/+9TX699vDwyAddnUJAISsd8deb9Zg7vrLh92Z4wJCrDoQ8jE42GONShHDVV0DkBn3mfTZY9JqSJ/Xn9dG+hPKsvdfdBHjNtTpOQ0w5jaA7CxvU4Z93UD0E59jMHi+c/Y+SfKVA6J3pD5VpF4PqU/bJnUS9zvTtN2i9Cl388tO6Tod+duEIHw9HF25fP7mt77M/M0MWhoaHW1TDF4Jg+tGgxR+wLjlAm2tcfgJqPaKxQ+0BR1omyOIr+n8BGEHbXwGlZcGQQ/JXA3H6yJzq3Uyv9QB+QmoKjI3GGPy17XTBzJXI/MjqOj1LGmtZG63T+b0+O3+yyXzud7LudEDbUHPjq49fMk4cN45C1fG5gIQ6CGbq+nPmtg8HRi3yOasGVCzg32duyv3cg70QFvQs6AI4x+8IuCHslO6mvo8SFSM8fknx8HQkE6oCnXHgpMBQ6g6HU9MUJFQdTgic55Ed8wQtugThvFTRWv1k6D0ML1HXltAGSkw9jssVWUat74JbnqULpNWNYVur1w4uynosbdSqwpi5LB7Tz87qQYzXNU1ARp6TN8j6hd4YROnfl6/Xh/100P6DvZ63vafcLe/9ERPz3/ifgChJJMoZc3fOw4nzlxxeOUcztCnNsvhBj1p2sFeztn+KVAVhxMz5idPgk0IvJ/zwIEdNHFVRC6AAZmJnBmItNVceF1EzpKp1sbkbOOWC7J1a+rEVvPgaVPQAba5G247aNuq5ksEjN87CrfoeMq3jYRZPRwA7QUzq8d4bsPZgokm8cmSNClLmtbDsGgo2QzbV5LW40gGHD4ij43yHPXs61WA3N+RTUkqoLzF4+1398UDPvwMgVMoug4ckgaIwQK8fr8bEyvHu02piRUWDmrz5xYdhRGbWGlgEoXlWHgtYnNbRHYPTwK5+xMr5b4N78L0STPoODIEEJUvnRgC8FTXBFwEQja99g8C7xvi/oE1+9KofxjTEZ6WCQI6LqmvpHMY84/kpHcOdMxm4aJN6IMXoTBeGw6hGQT0zwEIRHqUA6jLAbCmbpp1AHRgSB4H0EvZFbspaNmVB+Tn/0o0VZLyv4CmSvF/XfzPnPFp1gGU01912wH0Uo7Fbgo6EAhfgOvJzP6VqLHkZP+JGv13gf0ZmUyaZf+JxMP/iRr+p01BD//XYLN5D5AjsQMQAED/HIAa/nfBATCynzTsACQe/k/U8D9tCnr4jwJP5tiPgPF7R/6EYRT5t0n+rGQpzZK/TYsABFeL6DT/pzBX/G8bNP+fmzjlwhyBAAr65wjo98LnFBbyyYEtaDujAUMObBszc1xV7hS9IAfmpfn6xMC2etnj8/cCYmCbPx1TV8TANv2uJ5MY2Fave2lT0K97fRcDC6Cjd8MAokJS/qG690Fx/9C6GHha7jP+Tr8LTvnfAmR3DlP6XVByHZiA8fvH/QKf8yvur4v7W9cBT8tm1+wy96s8AGlT0HqPjYubT2byryQRgKTkL5AJX5F/XeTfvgh4WjbBZpfZX+XPT5uCDgDGEft5+LMPnwMKIKF/nkBguULlCWrzBK0LgtPJKyldgVroMLMzHewjvqAHXwYKIKF3rkAXWYdc+YLafEHr2mC95JrlnfYFulrCPNcWjCXME2cg+1eCIjjooSsQ+D5MuYK6XEH7SmFdoyOFMkmFM6Arb6BrdDQQ7FbTk1spLAKC/rkCRgoZCgvQWUKi18K0ugqWgQ+8u6x0p+ja+QHdiDxF+OIl3Rf6zieEYsvdPf+GKPga/BUjBO+4dz1yGIoeERKvAT/c8Efu9z/R7ysr2br9yO26JW4FowBtf6RXxRu5s6LN7LR4i5xHw4gQYPCK5pAHWSFxVIMTy4BFLcnLQmnMZm8hRlKIoAdC9w3u3fERHD4FO5VgJmfenUJUrNMC9nYPn5yV4Y6qqLCipFGsZ9c0VD3V4ZdmtT/8JcI+BEqodZ+Bue2YA4bW3TBHI8s5BmcB+hsVwMG7/rNe30ildEKbi16fQkDBrgskSDksYW92eW+dkcfmQlcKPYFeNQ5NVz7p81qhpVEi81rgB2BTVsZ80Q5AIBBxhgNgaNQbdgATgcmJzq9QlGFV0b0+oWcbRGchu8LrNZi/hzxeVpKsePwgjzP05k3zOD2zIBhQ7hqVq3RzWVsw8s15+JKC8eOLo/MqEs7JSueMZDNPESakC70tgDN1LFboDcCRbhrVhN6GqWqcxGYY2kEmp6eIqJ7UGWlmeuSyReI8Nr/BOxN7Y6z8K1XsLUWv8uA6YyFgFXsTRUkPnXzZfNIX7QBEXhfEHUD7sTdGurAO9nxuCyjJT9YW9OS47LE3AfP3kMd7PYleL4+3H3tjpAfrYE/ntoCaMk/bgpHJy4GbOXLXoRsIZXm4ODpXU+JRbX981ZytP9PQrQX+s7RmN1v7BjeOYnMmNvgJ/iCbs5I31EbnbOteEJufsMAR9EpN5sznNmguD7frCx6TV2l8mTn8gGsv+zGmJCRex5CclXeh4TF5yQRsHRuTq5RrubagY6Jr5M4vmMgrtX8PmbxcGFUxuWDWhKaZnI6lXraySWVQy7UF/Sp99kI6F0fqVeRPk5TUDcZbeCx52/yc43+XAXLlUzrNNGjC8YChdNKgrdk2E1vCSieDfAeUULzFOxFa30eGBuPdvEcuXEBUk/WLyxE6ZRiVU+iUoVc5dIN0XCV0KoGS/rl7Q0XjanMArQudDEOmYFyGVUX3GEiUZSUXOomYv4c8rmJxtfF460In/OpIWfeiQ3EZXBWVGwYdiuvBR4YiEOghnXNoYU4nqWNkonsE/pYE6LJ9ASM/XXxIsq0Nctnm0g2+bHMks50+4M9sR2OIN0MdEYDnE9Qd8AMJ/rqToc4sppYj0m7RFHVDa7+iYj01p6hLe8xR9FaKTSbGDG10FGVnI/p0x8OXeYLIxS0Zh7zLYTr9VIsD1GbHQK0XMJ1m2hPFdDF6Tq0yXzuoOdIxNU3JZ1DruaBvBL5G1zjZ0ArwLaKOG76FigytYU4ecWin2xpRCOavTXPlXk2n9h70bU0/Dv5KeZl7rJHOOHcG10O9mPG0mEzh3LEG7iJcwMZQAdvcYUnc4LAjKVxnPDp6W8XDrZFV6Fa7G6i2k1mND3zKdiERz5FjB+jNgvc8MTTQi4giSnWiszvRsDiKStq03l4xpmchnnG7+0vphCQLew7n8wFDSDKzMQNF11giEGfqzu2DYDwbs0MnZ6TTKUBpaOoJlk7KTIqZzKuLX47V8ivVK1LSbnVBihTG4gtiipQG1CclVt7IgK7i2gZjoYIoos2Qo7RqfmHdSUP46F/QW2TFg157CZGZNnEv0b5shbE4QsskUd0KXYZaGSFrC8bKCH4QAtEcDxe2PpcIBPrnBUSWPVBeoDYv0L7opeQKCd32AmrBhFxb0BrkM5P9XJojUOsmHGscAfGycgS1OYJGEwMdQELpNRY67gzUkgtZW9ARwtcNRHKv2CuCgB46AjqQqBxBC46g9eRCxoSOEN5/kemtgH8BJPkdwYFEBLJ7An4I9M8TEAlI88LiK00zB3viYjm0xVbCqKe1mWSI0iH5DYEg0XidK5cvaJSHRWjXrc3kWW6oJWmxkECsy9Jiwqvdha9pnItfe78iXefDr7B6TC9cyJxax2+seEKqTqpKcMZOOHu6N8Vz+rs3Ad2I3hXCF9IT9rrRC7MDJaUocnTQKYn+vIsx9nrbxBof728MT3CaJpjdoO7ulywp2F5vKwofR+cK+c1CRdQXAdU5Cya46Vj512hsK52UUp8BHRoDVk4ubXz36T65Rl58Gf9JEX4iS/MJGaVVWJXQGNGj7JTd9gA7PjLMLpUfXYXDRTWU5yTqNtm4OKygZKKgtiT5dCT8gvST59jjtN+49PAH87HpKLjk2skKsXE4LqKLhiuPY4WrugbAouLjovHx6j0DQzXZrGcouzZOe3Hxc4wx6adboGPinjvD5wkl/upWSLxC6/eO+BkJXhXzN838DKVks8xPjH6Z8phzDNKDSVH2c9PRnwA5F66OqRIAvfMAOo0I5QGa9gAsiWSzLkCng4MXJIw5a0G9AyaR3QXodATw7IVbLt8PHEJB//wARwyoG5lnTmeR4ZmbzM84nssPNU/vFzJ+jc+d3TcLOoHapveNQjobveLsMOyRHMe0VveBe45chh/s+Yn4m+Hb9uGXFvqf383v4ePj8mkyI5PCJztF65qXqXal5f4kSbkI4CZVdZGRXlf+pHGhi0y0E3dWzPtnnjqhmFNqdEJjYxhsejiz1+JNFARh/nAE1qvHwIHREf8H</diagram></mxfile>